@<TRIPOS>MOLECULE
ca
18 17 1 0 0
SMALL
NO_CHARGES


@<TRIPOS>ATOM
      1 C1          0.0850   -3.6020  -13.0190 C.2       1 UNL    0.0000
      2 O1         -0.1100   -3.0850  -14.1720 O.co2     1 UNL    0.0000
      3 C2          0.6970   -4.9570  -12.9730 C.3       1 UNL    0.0000
      4 O2         -0.2160   -2.9920  -12.0020 O.co2     1 UNL    0.0000
      5 C3          0.7200   -5.6240  -11.5390 C.3       1 UNL    0.0000
      6 O3         -0.6410   -5.7140  -11.0740 O.3       1 UNL    0.0000
      7 C4          1.5530   -4.7680  -10.6130 C.2       1 UNL    0.0000
      8 O4          2.6640   -4.3820  -10.9720 O.co2     1 UNL    0.0000
      9 C5          1.3010   -7.0250  -11.6110 C.3       1 UNL    0.0000
     10 O5          1.0740   -4.4350   -9.5250 O.co2     1 UNL    0.0000
     11 C6          1.1840   -7.7940  -10.3030 C.2       1 UNL    0.0000
     12 O6          2.0710   -7.6930   -9.4820 O.co2     1 UNL    0.0000
     13 O7          0.1480   -8.4720  -10.1040 O.co2     1 UNL    0.0000
     14 H21         0.1320   -5.6074  -13.6407 H         1 UNL    0.0000
     15 H22         1.7210   -4.8880  -13.3402 H         1 UNL    0.0000
     16 H51         0.7720   -7.5792  -12.3863 H         1 UNL    0.0000
     17 H52         2.3537   -6.9553  -11.8849 H         1 UNL    0.0000
     18 H3         -1.0213   -4.8340  -11.0236 H         1 UNL    0.0000
@<TRIPOS>BOND
     1    1    2 2
     2    1    3 1
     3    1    4 2
     4    3    5 1
     5    5    6 1
     6    5    7 1
     7    5    9 1
     8    7    8 2
     9    7   10 2
    10    9   11 1
    11   11   12 2
    12   11   13 2
    13   14    3 1
    14   15    3 1
    15   16    9 1
    16   17    9 1
    17   18    6 1
@<TRIPOS>SUBSTRUCTURE
     1 UNL     1 RESIDUE           4 A     UNL     0 ROOT
