@<TRIPOS>MOLECULE
lys
25 24 1 0 0
SMALL
NO_CHARGES


@<TRIPOS>ATOM
      1 C1          6.5320    2.0600   18.6020 C.2       1 UNL    0.0000
      2 N1          8.6650    2.8570   19.5320 N.4       1 UNL    0.0000
      3 O1          7.0550    1.0580   18.1230 O.co2     1 UNL    0.0000
      4 C2          7.2250    2.9120   19.6370 C.3       1 UNL    0.0000
      5 N2          7.1960    8.8990   21.6080 N.4       1 UNL    0.0000
      6 O2          5.3460    2.3710   18.2090 O.co2     1 UNL    0.0000
      7 C3          6.8010    4.3750   19.5710 C.3       1 UNL    0.0000
      8 C4          7.2750    5.2030   20.7620 C.3       1 UNL    0.0000
      9 C5          6.8990    6.6940   20.6060 C.3       1 UNL    0.0000
     10 C6          7.2960    7.4810   21.8210 C.3       1 UNL    0.0000
     11 H2          6.9490    2.5304   20.6200 H         1 UNL    0.0000
     12 H31         7.2131    4.8124   18.6616 H         1 UNL    0.0000
     13 H32         5.7132    4.4229   19.5213 H         1 UNL    0.0000
     14 H41         8.3588    5.1184   20.8422 H         1 UNL    0.0000
     15 H42         6.8184    4.8132   21.6718 H         1 UNL    0.0000
     16 H51         7.4121    7.1012   19.7348 H         1 UNL    0.0000
     17 H52         5.8222    6.7788   20.4600 H         1 UNL    0.0000
     18 H61         8.3273    7.2366   22.0755 H         1 UNL    0.0000
     19 H62         6.6493    7.2005   22.6524 H         1 UNL    0.0000
     20 H11         8.9696    1.8949   19.5735 H         1 UNL    0.0000
     21 H12         8.9541    3.2639   18.6539 H         1 UNL    0.0000
     22 H13         9.0782    3.3741   20.2949 H         1 UNL    0.0000
     23 HN21        7.4717    9.3865   22.4485 H         1 UNL    0.0000
     24 HN22        7.8039    9.1687   20.8479 H         1 UNL    0.0000
     25 HN23        6.2422    9.1384   21.3775 H         1 UNL    0.0000
@<TRIPOS>BOND
     1    1    3 2
     2    1    4 1
     3    1    6 2
     4    2    4 1
     5    4    7 1
     6    5   10 1
     7    7    8 1
     8    8    9 1
     9    9   10 1
    10   11    4 1
    11   12    7 1
    12   13    7 1
    13   14    8 1
    14   15    8 1
    15   16    9 1
    16   17    9 1
    17   18   10 1
    18   19   10 1
    19   20    2 1
    20   21    2 1
    21   22    2 1
    22   23    5 1
    23   24    5 1
    24   25    5 1
@<TRIPOS>SUBSTRUCTURE
     1 UNL     1 RESIDUE           4 A     UNL     0 ROOT
